[TITLE]
Scenario: CGGA 
Date: 2025-07-21 12:46:40 PM 

[JUNCTIONS]
;ID              	Elev        	Demand      	Pattern         
 J1              	94.5        	0           	                	;
 J2              	86.5        	0           	                	;
 J3              	92.9        	0           	                	;
 J4              	84.5        	0           	                	;
 J5              	84.5        	0           	                	;
 J6              	91.55       	0           	                	;
 J7              	91.7        	0           	                	;
 J8              	96          	0           	                	;
 J9              	99          	0           	                	;
 J10             	98          	0           	                	;
 J11             	99.7        	0           	                	;
 J12             	90.92       	0           	                	;
 J13             	89.5        	0           	                	;
 J14             	86          	0           	                	;
 J15             	83.3        	0           	                	;
 J16             	86.37       	0           	                	;
 J17             	93.6        	0           	                	;
 J18             	86          	0           	                	;
 J19             	85.64       	0           	                	;
 J20             	93.5        	0           	                	;
 J21             	96          	0           	                	;
 J22             	96.5        	0           	                	;
 J23             	93.5        	0           	                	;
 J24             	91.9        	0           	                	;
 J25             	91.85       	0           	                	;
 J26             	91.7        	0           	                	;
 J27             	91.6        	0           	                	;
 J28             	90.8        	0           	                	;
 J29             	91.27       	0           	                	;
 J30             	90          	0           	                	;
 J31             	88.55       	0           	                	;
 J32             	86.4        	0           	                	;
 J33             	85.2        	0           	                	;
 J34             	83.1        	0           	                	;
 J35             	79.4        	0           	                	;
 J36             	78.6        	0           	                	;
 J37             	98.6        	0           	                	;
 J38             	98.6        	0           	                	;
 J39             	98.6        	0           	                	;
 J40             	95.75       	0           	                	;
 J41             	95.75       	0           	                	;
 J42             	95.75       	0           	                	;
 J43             	95.75       	0           	                	;
 J44             	95.75       	0           	                	;
 J45             	95.75       	0           	                	;
 J46             	95.75       	0           	                	;
 J47             	95.75       	0           	                	;
 J48             	95.75       	0           	                	;
 J49             	98.75       	0           	                	;
 J50             	95.95       	0           	                	;
 J51             	87.197      	0           	                	;
 J52             	88.16       	0           	                	;
 J53             	88.25       	0           	                	;
 J54             	88.16       	0           	                	;
 J55             	88.16       	0           	                	;
 J56             	88.25       	0           	                	;
 J57             	88.16       	0           	                	;
 J58             	86.97       	0           	                	;
 J59             	86.97       	0           	                	;
 J60             	86.97       	0           	                	;
 J61             	88.14       	0           	                	;
 J62             	88.14       	0           	                	;
 J63             	88.14       	0           	                	;
 J64             	88.14       	0           	                	;
 J65             	88.14       	0           	                	;
 J66             	88.14       	0           	                	;
 J67             	88.14       	0           	                	;
 J68             	74.69       	0           	                	;
 J69             	74.69       	0           	                	;
 J70             	75.065      	52.66       	                	;
 J71             	76.56       	0           	                	;
 J72             	76.56       	0           	                	;
 J73             	76.56       	0           	                	;
 J74             	76.56       	0           	                	;
 J75             	76.56       	0           	                	;
 J76             	76.56       	0           	                	;
 J77             	76.56       	0           	                	;
 J78             	76.56       	0           	                	;
 J79             	76.56       	0           	                	;
 J80             	76.56       	0           	                	;
 J81             	75          	0           	                	;
 J82             	77          	0           	                	;
 J83             	77          	0           	                	;
 J84             	94          	0.22        	11              	;
 J85             	92.9        	0.14        	11              	;
 J86             	109.5       	0.07        	11              	;
 J87             	111.5       	0.0925      	11              	;
 J88             	110.5       	0.045       	11              	;
 J89             	94.6        	0.0984      	11              	;
 J90             	93.2        	0.05        	11              	;
 J91             	93          	0.1292      	11              	;
 J92             	94.8        	0.02125     	11              	;
 J93             	99.9        	2.3021875   	11              	;
 J94             	85.8        	0           	                	;
 J95             	85.8        	0           	                	;
 J96             	85.8        	0           	                	;
 J97             	88.8        	0           	                	;
 J98             	88.9        	0           	                	;
 J99             	89.7        	0           	                	;
 J100            	89.7        	0           	                	;
 J101            	89.7        	0           	                	;
 J102            	89.7        	0.11        	11              	;
 J103            	90          	0           	                	;
 J104            	88.93       	0           	                	;
 J105            	91.7        	0.383       	11              	;
 J106            	111         	0.15        	11              	;
 J107            	110.7       	0.29        	11              	;
 J108            	111.5       	0.21        	11              	;
 J109            	87.3        	0.1735      	11              	;
 J110            	75.5        	0.296       	11              	;
 J111            	76.7        	0.0485      	11              	;
 J112            	90.3        	0           	                	;
 J113            	91.2        	0           	                	;
 J114            	91          	0           	                	;
 J115            	90.4        	0           	                	;
 J116            	90.2        	0           	                	;
 J117            	90.4        	0           	                	;
 J118            	91          	0           	                	;
 J119            	92.2        	0           	                	;
 J120            	91.9        	0           	                	;
 J121            	95.1        	0           	                	;
 J122            	110.64      	0.07515     	11              	;
 J123            	110         	0.062425    	11              	;
 J124            	106.3       	0.26975     	11              	;
 J125            	95.4        	0.1883      	11              	;
 J126            	75.7        	0.172125    	11              	;
 J127            	72.4        	2.496       	11              	;
 J128            	108.45      	0.1245      	11              	;
 J129            	94          	0.014       	11              	;
 J130            	94          	0.014       	11              	;
 J131            	80          	0.04975     	11              	;
 J132            	89.4        	0.036       	11              	;
 J133            	89.4        	0.034       	11              	;
 J134            	89.4        	0.0165      	11              	;
 J135            	89.4        	0.09675     	11              	;
 J136            	91          	0.15325     	11              	;
 J137            	95          	0.019       	11              	;
 J138            	95          	0.078       	11              	;
 J139            	94          	0.295       	11              	;
 J140            	104         	0.035       	11              	;
 J141            	98          	1.06725     	11              	;
 J142            	90          	0.0375      	11              	;
 J143            	90          	0.5115      	11              	;
 J144            	104         	0.032       	11              	;
 J145            	110         	0.03125     	11              	;
 J146            	111         	0.045       	11              	;
 J147            	104         	0.015       	11              	;
 J148            	103         	0.05        	11              	;
 J149            	103         	0.07375     	11              	;
 J150            	106         	0.05125     	11              	;
 J151            	107         	0.06        	11              	;
 J152            	108         	0.0325      	11              	;
 J153            	108         	0.05375     	11              	;
 J154            	95          	0.1915      	11              	;
 J155            	95          	0.042       	11              	;
 J156            	95          	0.1355      	11              	;
 J157            	95          	0.019       	11              	;
 J158            	114         	0.025       	11              	;
 J159            	113         	0.045       	11              	;
 J160            	95          	0.114       	11              	;
 J161            	107         	0.06675     	11              	;
 J162            	105         	0.025       	11              	;
 J163            	106         	0.035       	11              	;
 J164            	107         	0.08        	11              	;
 J165            	102         	0           	                	;
 J166            	102         	0.027       	11              	;
 J167            	88.4        	0.2303125   	11              	;
 J168            	91.4        	0.019       	11              	;
 J169            	91.7        	0.113       	11              	;
 J170            	92.4        	0.139       	11              	;
 J171            	92.4        	0.036       	11              	;
 J172            	100         	0.2291875   	11              	;
 J173            	83          	0.03325     	11              	;
 J174            	89.5        	0.009       	11              	;
 J175            	94.5        	0.02025     	11              	;
 J176            	94.5        	0.293625    	11              	;
 J177            	91.4        	0.019       	11              	;
 J178            	91.4        	0.10725     	11              	;
 J179            	100         	0.017       	11              	;
 J180            	80          	0.068       	11              	;
 J181            	93.8        	0.019       	11              	;
 J182            	93.8        	0.019       	11              	;
 J183            	93          	0.017       	11              	;
 J184            	93          	0.026       	11              	;
 J185            	94.6        	0.0285      	11              	;
 J186            	95          	0.10925     	11              	;
 J187            	99          	0.18125     	11              	;
 J188            	100         	0.036375    	11              	;
 J189            	92.9        	0.32        	11              	;
 J190            	91.4        	0.14825     	11              	;
 J191            	86.3        	0.177       	11              	;
 J192            	111         	0.0575      	11              	;
 J193            	88.9        	0.051       	11              	;
 J194            	90          	0.1395      	11              	;
 J195            	109         	0.076625    	11              	;
 J196            	108         	0.070175    	11              	;
 J197            	100         	0.02475     	11              	;
 J198            	100         	0           	                	;
 J199            	90          	0.098       	11              	;
 J200            	90          	0.125       	11              	;
 J201            	85          	0.017       	11              	;
 J202            	87.2        	0.058       	11              	;
 J203            	108         	0.06625     	11              	;
 J204            	111         	0.063       	11              	;
 J205            	111         	0.03        	11              	;
 J206            	108         	0.0475      	11              	;
 J207            	107         	0.04875     	11              	;
 J208            	100         	0           	                	;
 J209            	100         	0.001       	11              	;
 J210            	97.5        	0.20325     	11              	;
 J211            	89.2        	0.32075     	11              	;
 J212            	88.4        	0.200625    	11              	;
 J213            	91.4        	0.1295      	11              	;
 J214            	92.5        	0.1145      	11              	;
 J215            	105         	0.127       	11              	;
 J216            	94.5        	0.261375    	11              	;
 J217            	92.5        	0.458       	11              	;
 J218            	92          	1.0534375   	11              	;
 J219            	90          	0.37975     	11              	;
 J220            	92.5        	0.347       	11              	;
 J221            	94          	0.014       	11              	;
 J222            	94          	0.014       	11              	;
 J223            	94          	0.014       	11              	;
 J224            	94          	0.014       	11              	;
 J225            	87.2        	0.714       	11              	;
 J226            	76.2        	0.510875    	11              	;
 J227            	78.1        	0.291875    	11              	;
 J228            	75.8        	0.025       	11              	;
 J229            	77.7        	0.051       	11              	;
 J230            	77.3        	0.021       	11              	;
 J231            	75.7        	0.272875    	11              	;
 J232            	82.4        	0.1465      	11              	;
 J233            	81.8        	0.202       	11              	;
 J234            	78.7        	0.085       	11              	;
 J235            	77.3        	0.035       	11              	;
 J236            	86.6        	0.107       	11              	;
 J237            	77.8        	0.046       	11              	;
 J238            	77.7        	0.615       	11              	;
 J239            	77.8        	0.021       	11              	;
 J240            	77.8        	0.04975     	11              	;
 J241            	76.9        	0.67075     	11              	;
 J242            	77.1        	0.3875      	11              	;
 J243            	77.2        	0.095       	11              	;
 J244            	77.3        	0.081625    	11              	;
 J245            	77.3        	0.028       	11              	;
 J246            	77.8        	0.0885      	11              	;
 J247            	77.8        	0.0685      	11              	;
 J248            	77.8        	0.03975     	11              	;
 J249            	77.7        	0.15325     	11              	;
 J250            	77.7        	0.0505      	11              	;
 J251            	76.9        	0.264625    	11              	;
 J252            	76.6        	0.11175     	11              	;
 J253            	79.3        	0.0765      	11              	;
 J254            	80.9        	0.2795      	11              	;
 J255            	87          	0.068       	11              	;
 J256            	79.4        	0.021       	11              	;
 J257            	79.4        	0.045       	11              	;
 J258            	78.6        	0.014       	11              	;
 J259            	78.6        	0.021       	11              	;
 J260            	79.4        	0.159       	11              	;
 J261            	78.1        	0.148       	11              	;
 J262            	85.3        	0.091       	11              	;
 J263            	82.6        	0.1315      	11              	;
 J264            	79.3        	0.294       	11              	;
 J265            	78          	0.083       	11              	;
 J266            	77.7        	0.183625    	11              	;
 J267            	78.6        	0.109125    	11              	;
 J268            	91.7        	0.35725     	11              	;
 J269            	89.9        	0.3925      	11              	;
 J270            	86.8        	0.36225     	11              	;
 J271            	79.4        	0.20525     	11              	;
 J272            	79.6        	0.33278125  	11              	;
 J273            	79.4        	0.0945      	11              	;
 J274            	86.5        	0.014       	11              	;
 J275            	85.1        	0.113125    	11              	;
 J276            	84.7        	0.242       	11              	;
 J277            	84.7        	0.014       	11              	;
 J278            	94          	0.056       	11              	;
 J279            	90.4        	0.056       	11              	;
 J280            	86.7        	0.06        	11              	;
 J281            	84.6        	0.075       	11              	;
 J282            	84.7        	0.117       	11              	;
 J283            	85.3        	0.26125     	11              	;
 J284            	85.7        	0.39525     	11              	;
 J285            	85.3        	0.021       	11              	;
 J286            	85.3        	0.094       	11              	;
 J287            	93.5        	0.1325      	11              	;
 J288            	92.1        	0.273875    	11              	;
 J289            	93.9        	0.0625      	11              	;
 J290            	93.9        	0.101       	11              	;
 J291            	93.7        	0.58775     	11              	;
 J292            	91          	0.12225     	11              	;
 J293            	90.9        	0.154       	11              	;
 J294            	90.9        	0.014       	11              	;
 J295            	91          	0.04125     	11              	;
 J296            	96.1        	0.0545      	11              	;
 J297            	96.1        	0.1365      	11              	;
 J298            	89.8        	0.12375     	11              	;
 J299            	89.9        	0.268375    	11              	;
 J300            	89.9        	0.0315      	11              	;
 J301            	89.9        	0.021       	11              	;
 J302            	89.9        	0.039       	11              	;
 J303            	93.5        	0.022       	11              	;
 J304            	93.5        	0.014       	11              	;
 J305            	93.5        	0.014       	11              	;
 J306            	93.5        	0.033       	11              	;
 J307            	96.1        	0.04        	11              	;
 J308            	95.9        	0.038       	11              	;
 J309            	94.1        	0.031       	11              	;
 J310            	94          	0.0345      	11              	;
 J311            	92.8        	0.09525     	11              	;
 J312            	93.5        	0.056       	11              	;
 J313            	86.5        	0.202       	11              	;
 J314            	90.9        	0.1675      	11              	;
 J315            	93.5        	0.063       	11              	;
 J316            	93.5        	0.078       	11              	;
 J317            	90.2        	0.2115      	11              	;
 J318            	90.8        	0.08975     	11              	;
 J319            	92.2        	0.06675     	11              	;
 J320            	92.2        	0.0835      	11              	;
 J321            	92.2        	0.021       	11              	;
 J322            	91.4        	0.04        	11              	;
 J323            	89.9        	0.051       	11              	;
 J324            	91.4        	0.021       	11              	;
 J325            	92.9        	0.052       	11              	;
 J326            	91.4        	0.045       	11              	;
 J327            	91.4        	0.014       	11              	;
 J328            	91.4        	0.021       	11              	;
 J329            	91.5        	0.0875      	11              	;
 J330            	90.1        	0.0535      	11              	;
 J331            	89.3        	0.058       	11              	;
 J332            	89.3        	0.23025     	11              	;
 J333            	86.1        	0.13675     	11              	;
 J334            	91.4        	0.34225     	11              	;
 J335            	91.4        	0.075625    	11              	;
 J336            	90          	0.014       	11              	;
 J337            	89.9        	0.052       	11              	;
 J338            	89.9        	0.045375    	11              	;
 J339            	90          	0.063       	11              	;
 J340            	90.8        	0.1375      	11              	;
 J341            	92.5        	0.045       	11              	;
 J342            	90.8        	0.021       	11              	;
 J343            	90.8        	0.041       	11              	;
 J344            	90.8        	0.0395      	11              	;
 J345            	92.6        	0.144       	11              	;
 J346            	92.6        	0.33525     	11              	;
 J347            	92.5        	0.1285      	11              	;
 J348            	92.5        	0.18425     	11              	;
 J349            	93.5        	0.07425     	11              	;
 J350            	93.6        	0.014       	11              	;
 J351            	90.6        	0.23        	11              	;
 J352            	90.5        	0.014       	11              	;
 J353            	90.6        	0.052       	11              	;
 J354            	90          	0.04875     	11              	;
 J355            	89.6        	0.149       	11              	;
 J356            	90.3        	0.052       	11              	;
 J357            	90.3        	0.055       	11              	;
 J358            	87.3        	0.169       	11              	;
 J359            	86.5        	0.025       	11              	;
 J360            	86.5        	0.021       	11              	;
 J361            	86.5        	0.014       	11              	;
 J362            	86.6        	0.07325     	11              	;
 J363            	86.1        	0.1345      	11              	;
 J364            	87.1        	0.38325     	11              	;
 J365            	89.4        	0.1685      	11              	;
 J366            	89.5        	0.3         	11              	;
 J367            	90.3        	0.281       	11              	;
 J368            	90.3        	0.021       	11              	;
 J369            	90.3        	0.114       	11              	;
 J370            	90.3        	0.028       	11              	;
 J371            	88          	0.163875    	11              	;
 J372            	88.2        	0.111       	11              	;
 J373            	88.7        	0.2095      	11              	;
 J374            	91.2        	0.1015      	11              	;
 J375            	90          	0.408       	11              	;
 J376            	89.5        	0.202375    	11              	;
 J377            	89.7        	0.13675     	11              	;
 J378            	90.6        	0.051       	11              	;
 J379            	91.2        	0.051       	11              	;
 J380            	91.2        	0.08        	11              	;
 J381            	89.7        	0.198       	11              	;
 J382            	87.3        	0.071       	11              	;
 J383            	88.9        	0.1075      	11              	;
 J384            	87.3        	0.462       	11              	;
 J385            	87.3        	0.042       	11              	;
 J386            	87.4        	0.021       	11              	;
 J387            	87.4        	0.021       	11              	;
 J388            	86.8        	0.0692      	11              	;
 J389            	87.4        	0.028       	11              	;
 J390            	87.3        	0.056       	11              	;
 J391            	87.9        	0.0835      	11              	;
 J392            	87.9        	0.072       	11              	;
 J393            	89          	0.0725      	11              	;
 J394            	88.8        	0.081       	11              	;
 J395            	88.7        	0.083       	11              	;
 J396            	89.5        	0.12175     	11              	;
 J397            	89.1        	0.142       	11              	;
 J398            	89.5        	0.0535      	11              	;
 J399            	89.1        	0.075       	11              	;
 J400            	87.4        	0.3375      	11              	;
 J401            	89          	0.19225     	11              	;
 J402            	91.5        	0.1105      	11              	;
 J403            	91.1        	0.1415      	11              	;
 J404            	89.5        	0.159       	11              	;
 J405            	88.4        	0.014       	11              	;
 J406            	88.2        	0.0835      	11              	;
 J407            	88.2        	0.014       	11              	;
 J408            	88.3        	0.05        	11              	;
 J409            	88.3        	0.073       	11              	;
 J410            	88.2        	0.138625    	11              	;
 J411            	89.3        	0.09275     	11              	;
 J412            	87.2        	0.4195      	11              	;
 J413            	86.5        	0.20675     	11              	;
 J414            	86.8        	0.13275     	11              	;
 J415            	86.8        	0.516       	11              	;
 J416            	91.4        	0.203       	11              	;
 J417            	94.4        	0.40675     	11              	;
 J418            	93          	0.82725     	11              	;
 J419            	93          	0.578625    	11              	;
 J420            	92          	0.205875    	11              	;
 J421            	91.6        	0.75125     	11              	;
 J422            	91.9        	0.2155      	11              	;
 J423            	92.5        	0.15375     	11              	;
 J424            	92.7        	0.1845      	11              	;
 J425            	92.6        	0.014       	11              	;
 J426            	92.3        	0.143       	11              	;
 J427            	92.6        	0.05925     	11              	;
 J428            	92.7        	0.06975     	11              	;
 J429            	93          	0.238       	11              	;
 J430            	93          	0.259       	11              	;
 J431            	91.9        	0.035       	11              	;
 J432            	92.1        	0.042       	11              	;
 J433            	92.1        	0.042       	11              	;
 J434            	91.9        	0.1145      	11              	;
 J435            	90.8        	0.1855      	11              	;
 J436            	88.8        	0.254875    	11              	;
 J437            	89.1        	0.338       	11              	;
 J438            	89.1        	0.033       	11              	;
 J439            	89.2        	0.064       	11              	;
 J440            	89          	0.053       	11              	;
 J441            	90.04       	0.123       	11              	;
 J442            	93          	0.014       	11              	;
 J443            	93          	0.021       	11              	;
 J444            	93          	0.14        	11              	;
 J445            	88.8        	0.221       	11              	;
 J446            	95          	0.2511875   	11              	;
 J447            	90.6        	0.014       	11              	;
 J448            	90.2        	0.15        	11              	;
 J449            	93.3        	0.372       	11              	;
 J450            	96.8        	0.021       	11              	;
 J451            	96.4        	0.0715      	11              	;
 J452            	94.4        	0.21575     	11              	;
 J453            	93.9        	0.106       	11              	;
 J454            	94.2        	0.048       	11              	;
 J455            	95.4        	0.051       	11              	;
 J456            	95.4        	0.035       	11              	;
 J457            	95.4        	0.233       	11              	;
 J458            	95.3        	0.093375    	11              	;
 J459            	96.4        	0.255125    	11              	;
 J460            	93.8        	0.3718125   	11              	;
 J461            	93.2        	0.2315      	11              	;
 J462            	92.4        	0.014       	11              	;
 J463            	93.7        	0.029       	11              	;
 J464            	93.7        	0.0315      	11              	;
 J465            	93.7        	0.1145      	11              	;
 J466            	95.8        	0.13425     	11              	;